tests/data/power_flow/pandapower-asymmetric-node/pgm_asym_output.json
{
  "line": [
    {
      "id": 3,
      "energized": 1,
      "loading": 0.01904788472709185,
      "p_from": [
        22.683494326692674,
        22.683494349205283,
        22.683494314964154
      ],
      "q_from": [
        -115471.66220613803,
        -115471.66220609436,
        -115471.66220613188
      ],
      "i_from": [
        19.047884727091848,
        19.047884727084647,
        19.047884727090835
      ],
      "s_from": [
        115471.6644341345,
        115471.66443409084,
        115471.66443412835
      ],
      "p_to": [
        7.445462368046535e-12,
        -1.3586005159000196e-08,
        1.1682943050981243e-08
      ],
      "q_to": [
        1.8953757861755476e-08,
        -1.4039881351667394e-08,
        1.7679510239645734e-08
      ],
      "i_to": [
        3.1255774458043964e-12,
        3.2217714875249462e-12,
        3.4945018188793978e-12
      ],
      "s_to": [
        1.8953759324127955e-08,
        1.953708792397879e-08,
        2.119094713896029e-08
      ]
    }
  ],
  "node": [
    {
      "id": 1,
      "energized": 1,
      "u_pu": [
        1.0000000000000033,
        1.0000000000000036,
        1.0000000000000033
      ],
      "u": [
        6062.177826491092,
        6062.177826491094,
        6062.177826491092
      ],
      "u_angle": [
        -3.4573853317126225e-16,
        -2.0943951023931957,
        2.0943951023931953
      ]
    },
    {
      "id": 2,
      "energized": 1,
      "u_pu": [
        1.0003141808134304,
        1.0003141808134304,
        1.0003141808134304
      ],
      "u": [
        6064.082446451758,
        6064.082446451758,
        6064.082446451758
      ],
      "u_angle": [
        -0.0003928224703187398,
        -2.094787924863514,
        2.094002279922877
      ]
    },
    {
      "id": 5,
      "energized": 0,
      "u_pu": [
        0.0,
        0.0,
        0.0
      ],
      "u": [
        0.0,
        0.0,
        0.0
      ],
      "u_angle": [
        0.0,
        0.0,
        0.0
      ]
    }
  ],
  "source": [
    {
      "id": 10,
      "energized": 1,
      "p": [
        420.2912971740181,
        -4234.039146000984,
        -1226.9732072003046
      ],
      "q": [
        -111618.06222159236,
        -120014.31721291362,
        -114237.94368617267
      ],
      "i": [
        18.41233574874634,
        19.809544475885485,
        18.845460480037634
      ],
      "s": [
        111618.85350995927,
        120088.98127460206,
        114244.53265209826
      ],
      "pf": [
        0.0037654149272955692,
        -0.035257515727601996,
        -0.010739885565786587
      ]
    }
  ]
}